# C as buckled hexagonal graphite
# Without loss of generality zeta1=0
data_nolabel
_cell_length_a     2.456
_cell_length_b     2.456
_cell_length_c     6.696
_cell_angle_alpha  90
_cell_angle_beta   90
_cell_angle_gamma  120
_symmetry_space_group_name_H-M  'P63mc'
loop_
_atom_site_type_symbol
_atom_site_fract_x
_atom_site_fract_y
_atom_site_fract_z
_atom_site_Wyckoff_symbol
 C  0        0        0    2a
 C  0.333333 0.666667 0.1  2b
