data_nolabel
_cell_length_a     5.4
_cell_length_b     5.4
_cell_length_c     5.4
_cell_angle_alpha  90
_cell_angle_beta   90
_cell_angle_gamma  90
_symmetry_space_group_name_H-M  'F-43m'
loop_
_atom_site_type_symbol
_atom_site_fract_x
_atom_site_fract_y
_atom_site_fract_z
 Na  0    0    0
 Mg  .25  .25  .25
