data_nolabel
_cell_length_a     4.123
_cell_length_b     4.123
_cell_length_c     4.123
_cell_angle_alpha  90
_cell_angle_beta   90
_cell_angle_gamma  90
_symmetry_space_group_name_H-M  'Pm-3m'
loop_
_atom_site_type_symbol
_atom_site_fract_x
_atom_site_fract_y
_atom_site_fract_z
_atom_site_Wyckoff_symbol
  Cs       0          0          0      1a 
  Cl       .5         .5         .5     1b 
