# Cu2O
# doi=10.1107/S0108767389012596
data_nolabel
_cell_length_a     4.2685
_cell_length_b     4.2685
_cell_length_c     4.2685
_cell_angle_alpha  90
_cell_angle_beta   90
_cell_angle_gamma  90
_symmetry_space_group_name_H-M  'Pn-3m'
loop_
_atom_site_type_symbol
_atom_site_fract_x
_atom_site_fract_y
_atom_site_fract_z
  Cu     0.00000000  0.00000000  0.00000000
  O      0.25000000  0.25000000  0.25000000
