data_nolabel
_cell_length_a     6.708
_cell_length_b     6.708
_cell_length_c     6.708
_cell_angle_alpha  90
_cell_angle_beta   90
_cell_angle_gamma  90
_symmetry_space_group_name_H-M  'Fm-3m'
loop_
_atom_site_type_symbol
_atom_site_fract_x
_atom_site_fract_y
_atom_site_fract_z
_atom_site_Wyckoff_symbol
 Bi  0   0   0    4a
 Li  .5  .5  .5   4b
 Li  .25 .25 .25  8c
