data_nolabel
_cell_length_a    14
_cell_length_b    14
_cell_length_c    14
_cell_angle_alpha 90
_cell_angle_beta  90
_cell_angle_gamma 90
_symmetry_space_group_name_H-M 'F d -3 m'
_symmetry_Int_Tables_number 227
loop_
_symmetry_equiv_pos_as_xyz
'z+1/4, y+1/4, -x+1/4'
'y+1/4, x+1/4, -z+1/4'
'x+1/4, z+1/4, -y+1/4'
'z+1/4, x+1/4, -y+1/4'
'y+1/4, z+1/4, -x+1/4'
'x+1/4, y+1/4, -z+1/4'
'z+1/4, -y+1/4, x+1/4'
'y+1/4, -x+1/4, z+1/4'
'x+1/4, -z+1/4, y+1/4'
'z+1/4, -x+1/4, y+1/4'
'y+1/4, -z+1/4, x+1/4'
'x+1/4, -y+1/4, z+1/4'
'-z+1/4, y+1/4, x+1/4'
'-y+1/4, x+1/4, z+1/4'
'-x+1/4, z+1/4, y+1/4'
'-z+1/4, x+1/4, y+1/4'
'-y+1/4, z+1/4, x+1/4'
'-x+1/4, y+1/4, z+1/4'
'-z+1/4, -y+1/4, -x+1/4'
'-y+1/4, -x+1/4, -z+1/4'
'-x+1/4, -z+1/4, -y+1/4'
'-z+1/4, -x+1/4, -y+1/4'
'-y+1/4, -z+1/4, -x+1/4'
'-x+1/4, -y+1/4, -z+1/4'
'-z, -y, x'
'-y, -x, z'
'-x, -z, y'
'-z, -x, y'
'-y, -z, x'
'-x, -y, z'
'-z, y, -x'
'-y, x, -z'
'-x, z, -y'
'-z, x, -y'
'-y, z, -x'
'-x, y, -z'
'z, -y, -x'
'y, -x, -z'
'x, -z, -y'
'z, -x, -y'
'y, -z, -x'
'x, -y, -z'
'z, y, x'
'y, x, z'
'x, z, y'
'z, x, y'
'y, z, x'
'x, y, z'
'z+1/4, y+3/4, -x+3/4'
'y+1/4, x+3/4, -z+3/4'
'x+1/4, z+3/4, -y+3/4'
'z+1/4, x+3/4, -y+3/4'
'y+1/4, z+3/4, -x+3/4'
'x+1/4, y+3/4, -z+3/4'
'z+1/4, -y+3/4, x+3/4'
'y+1/4, -x+3/4, z+3/4'
'x+1/4, -z+3/4, y+3/4'
'z+1/4, -x+3/4, y+3/4'
'y+1/4, -z+3/4, x+3/4'
'x+1/4, -y+3/4, z+3/4'
'-z+1/4, y+3/4, x+3/4'
'-y+1/4, x+3/4, z+3/4'
'-x+1/4, z+3/4, y+3/4'
'-z+1/4, x+3/4, y+3/4'
'-y+1/4, z+3/4, x+3/4'
'-x+1/4, y+3/4, z+3/4'
'-z+1/4, -y+3/4, -x+3/4'
'-y+1/4, -x+3/4, -z+3/4'
'-x+1/4, -z+3/4, -y+3/4'
'-z+1/4, -x+3/4, -y+3/4'
'-y+1/4, -z+3/4, -x+3/4'
'-x+1/4, -y+3/4, -z+3/4'
'-z, -y+1/2, x+1/2'
'-y, -x+1/2, z+1/2'
'-x, -z+1/2, y+1/2'
'-z, -x+1/2, y+1/2'
'-y, -z+1/2, x+1/2'
'-x, -y+1/2, z+1/2'
'-z, y+1/2, -x+1/2'
'-y, x+1/2, -z+1/2'
'-x, z+1/2, -y+1/2'
'-z, x+1/2, -y+1/2'
'-y, z+1/2, -x+1/2'
'-x, y+1/2, -z+1/2'
'z, -y+1/2, -x+1/2'
'y, -x+1/2, -z+1/2'
'x, -z+1/2, -y+1/2'
'z, -x+1/2, -y+1/2'
'y, -z+1/2, -x+1/2'
'x, -y+1/2, -z+1/2'
'z, y+1/2, x+1/2'
'y, x+1/2, z+1/2'
'x, z+1/2, y+1/2'
'z, x+1/2, y+1/2'
'y, z+1/2, x+1/2'
'x, y+1/2, z+1/2'
'z+3/4, y+1/4, -x+3/4'
'y+3/4, x+1/4, -z+3/4'
'x+3/4, z+1/4, -y+3/4'
'z+3/4, x+1/4, -y+3/4'
'y+3/4, z+1/4, -x+3/4'
'x+3/4, y+1/4, -z+3/4'
'z+3/4, -y+1/4, x+3/4'
'y+3/4, -x+1/4, z+3/4'
'x+3/4, -z+1/4, y+3/4'
'z+3/4, -x+1/4, y+3/4'
'y+3/4, -z+1/4, x+3/4'
'x+3/4, -y+1/4, z+3/4'
'-z+3/4, y+1/4, x+3/4'
'-y+3/4, x+1/4, z+3/4'
'-x+3/4, z+1/4, y+3/4'
'-z+3/4, x+1/4, y+3/4'
'-y+3/4, z+1/4, x+3/4'
'-x+3/4, y+1/4, z+3/4'
'-z+3/4, -y+1/4, -x+3/4'
'-y+3/4, -x+1/4, -z+3/4'
'-x+3/4, -z+1/4, -y+3/4'
'-z+3/4, -x+1/4, -y+3/4'
'-y+3/4, -z+1/4, -x+3/4'
'-x+3/4, -y+1/4, -z+3/4'
'-z+1/2, -y, x+1/2'
'-y+1/2, -x, z+1/2'
'-x+1/2, -z, y+1/2'
'-z+1/2, -x, y+1/2'
'-y+1/2, -z, x+1/2'
'-x+1/2, -y, z+1/2'
'-z+1/2, y, -x+1/2'
'-y+1/2, x, -z+1/2'
'-x+1/2, z, -y+1/2'
'-z+1/2, x, -y+1/2'
'-y+1/2, z, -x+1/2'
'-x+1/2, y, -z+1/2'
'z+1/2, -y, -x+1/2'
'y+1/2, -x, -z+1/2'
'x+1/2, -z, -y+1/2'
'z+1/2, -x, -y+1/2'
'y+1/2, -z, -x+1/2'
'x+1/2, -y, -z+1/2'
'z+1/2, y, x+1/2'
'y+1/2, x, z+1/2'
'x+1/2, z, y+1/2'
'z+1/2, x, y+1/2'
'y+1/2, z, x+1/2'
'x+1/2, y, z+1/2'
'z+3/4, y+3/4, -x+1/4'
'y+3/4, x+3/4, -z+1/4'
'x+3/4, z+3/4, -y+1/4'
'z+3/4, x+3/4, -y+1/4'
'y+3/4, z+3/4, -x+1/4'
'x+3/4, y+3/4, -z+1/4'
'z+3/4, -y+3/4, x+1/4'
'y+3/4, -x+3/4, z+1/4'
'x+3/4, -z+3/4, y+1/4'
'z+3/4, -x+3/4, y+1/4'
'y+3/4, -z+3/4, x+1/4'
'x+3/4, -y+3/4, z+1/4'
'-z+3/4, y+3/4, x+1/4'
'-y+3/4, x+3/4, z+1/4'
'-x+3/4, z+3/4, y+1/4'
'-z+3/4, x+3/4, y+1/4'
'-y+3/4, z+3/4, x+1/4'
'-x+3/4, y+3/4, z+1/4'
'-z+3/4, -y+3/4, -x+1/4'
'-y+3/4, -x+3/4, -z+1/4'
'-x+3/4, -z+3/4, -y+1/4'
'-z+3/4, -x+3/4, -y+1/4'
'-y+3/4, -z+3/4, -x+1/4'
'-x+3/4, -y+3/4, -z+1/4'
'-z+1/2, -y+1/2, x'
'-y+1/2, -x+1/2, z'
'-x+1/2, -z+1/2, y'
'-z+1/2, -x+1/2, y'
'-y+1/2, -z+1/2, x'
'-x+1/2, -y+1/2, z'
'-z+1/2, y+1/2, -x'
'-y+1/2, x+1/2, -z'
'-x+1/2, z+1/2, -y'
'-z+1/2, x+1/2, -y'
'-y+1/2, z+1/2, -x'
'-x+1/2, y+1/2, -z'
'z+1/2, -y+1/2, -x'
'y+1/2, -x+1/2, -z'
'x+1/2, -z+1/2, -y'
'z+1/2, -x+1/2, -y'
'y+1/2, -z+1/2, -x'
'x+1/2, -y+1/2, -z'
'z+1/2, y+1/2, x'
'y+1/2, x+1/2, z'
'x+1/2, z+1/2, y'
'z+1/2, x+1/2, y'
'y+1/2, z+1/2, x'
'x+1/2, y+1/2, z'
loop_
_atom_site_label
_atom_site_Wyckoff_symbol
_atom_site_fract_x
_atom_site_fract_y
_atom_site_fract_z
C 16d 0.625 0.625 0.625
N 16c 0.125 0.125 0.125
S 48f 0.25 0     0
O  8b 0.5   0.5   0.5
